<?xml version="1.0" encoding="UTF-8"?>

<!-- generated on 2022-08-09 20:29:43 by Eclipse SUMO netedit Version 1.14.1
<configuration xmlns:xsi="http://www.w3.org/2001/XMLSchema-instance" xsi:noNamespaceSchemaLocation="http://sumo.dlr.de/xsd/netconvertConfiguration.xsd">

    <input>
        <sumo-net-file value="test.net.xml"/>
    </input>

    <output>
        <output-file value="test.net.xml"/>
    </output>

    <processing>
        <geometry.min-radius.fix.railways value="false"/>
        <geometry.max-grade.fix value="false"/>
        <offset.disable-normalization value="true"/>
        <lefthand value="false"/>
    </processing>

    <junctions>
        <no-turnarounds value="true"/>
        <junctions.corner-detail value="5"/>
        <junctions.limit-turn-speed value="5.5"/>
        <rectangular-lane-cut value="false"/>
    </junctions>

    <pedestrian>
        <walkingareas value="false"/>
    </pedestrian>

</configuration>
-->

<net version="1.9" junctionCornerDetail="5" limitTurnSpeed="5.50" xmlns:xsi="http://www.w3.org/2001/XMLSchema-instance" xsi:noNamespaceSchemaLocation="http://sumo.dlr.de/xsd/net_file.xsd">

    <location netOffset="0.00,0.00" convBoundary="-11.78,-165.06,268.42,63.95" origBoundary="-10000000000.00,-10000000000.00,10000000000.00,10000000000.00" projParameter="!"/>

    <edge id=":J10_0" function="internal">
        <lane id=":J10_0_0" index="0" speed="13.89" length="0.26" shape="13.69,-82.29 13.49,-82.42"/>
        <lane id=":J10_0_1" index="1" speed="13.89" length="0.26" shape="15.44,-84.96 15.21,-85.11"/>
    </edge>
    <edge id=":J10_2" function="internal">
        <lane id=":J10_2_0" index="0" speed="13.89" length="0.33" shape="18.66,-90.50 18.96,-90.31"/>
        <lane id=":J10_2_1" index="1" speed="13.89" length="0.33" shape="16.94,-87.81 17.20,-87.64"/>
    </edge>
    <edge id=":J11_0" function="internal">
        <lane id=":J11_0_0" index="0" speed="13.89" length="0.42" shape="-11.87,-105.87 -11.98,-106.34"/>
        <lane id=":J11_0_1" index="1" speed="13.89" length="0.42" shape="-8.76,-106.62 -8.84,-106.97"/>
    </edge>
    <edge id=":J11_2" function="internal">
        <lane id=":J11_2_0" index="0" speed="13.89" length="0.18" shape="-2.57,-108.23 -2.54,-108.12"/>
        <lane id=":J11_2_1" index="1" speed="13.89" length="0.18" shape="-5.70,-107.60 -5.65,-107.37"/>
    </edge>
    <edge id=":J12_0" function="internal">
        <lane id=":J12_0_0" index="0" speed="13.89" length="0.27" shape="-14.70,-126.51 -14.72,-126.75"/>
        <lane id=":J12_0_1" index="1" speed="13.89" length="0.27" shape="-11.51,-126.78 -11.54,-127.06"/>
    </edge>
    <edge id=":J12_2" function="internal">
        <lane id=":J12_2_0" index="0" speed="13.89" length="0.34" shape="-5.17,-127.68 -5.13,-127.33"/>
        <lane id=":J12_2_1" index="1" speed="13.89" length="0.34" shape="-8.35,-127.37 -8.32,-127.05"/>
    </edge>
    <edge id=":J13_0" function="internal">
        <lane id=":J13_0_0" index="0" speed="3.78" length="2.51" shape="-5.16,-148.53 -5.92,-148.46 -6.44,-148.20 -6.74,-147.76 -6.81,-147.13"/>
        <lane id=":J13_0_1" index="1" speed="5.86" length="7.51" shape="-5.09,-151.73 -7.33,-151.51 -8.90,-150.73 -9.80,-149.40 -10.03,-147.52"/>
    </edge>
    <edge id=":J13_2" function="internal">
        <lane id=":J13_2_0" index="0" speed="8.62" length="17.51" shape="-16.48,-148.30 -15.94,-152.70 -13.84,-155.80 -10.18,-157.61 -4.95,-158.13"/>
        <lane id=":J13_2_1" index="1" speed="7.37" length="12.51" shape="-13.25,-147.91 -12.87,-151.05 -11.37,-153.27 -8.76,-154.56 -5.02,-154.93"/>
    </edge>
    <edge id=":J14_0" function="internal">
        <lane id=":J14_0_0" index="0" speed="13.89" length="0.68" shape="107.40,-107.10 107.38,-107.20 107.36,-107.26 107.33,-107.32 107.28,-107.41"/>
        <lane id=":J14_0_1" index="1" speed="13.89" length="0.68" shape="110.49,-107.94 110.41,-108.23 110.35,-108.42 110.26,-108.61 110.13,-108.88"/>
    </edge>
    <edge id=":J14_2" function="internal">
        <lane id=":J14_2_0" index="0" speed="13.89" length="2.04" shape="115.81,-111.82 116.13,-111.19 116.33,-110.75 116.48,-110.29 116.67,-109.61"/>
        <lane id=":J14_2_1" index="1" speed="13.89" length="2.04" shape="112.97,-110.35 113.20,-109.90 113.34,-109.58 113.45,-109.26 113.58,-108.77"/>
    </edge>
    <edge id=":J15_0" function="internal">
        <lane id=":J15_0_0" index="0" speed="9.97" length="14.02" shape="91.83,-137.36 89.44,-141.40 87.02,-144.30 84.59,-146.06 82.12,-146.69"/>
    </edge>
    <edge id=":J15_1" function="internal">
        <lane id=":J15_1_0" index="0" speed="8.86" length="22.45" shape="94.67,-138.83 92.52,-144.99 93.19,-149.64 96.67,-152.81 102.98,-154.47"/>
    </edge>
    <edge id=":J15_2" function="internal">
        <lane id=":J15_2_0" index="0" speed="5.87" length="9.11" shape="103.73,-148.11 101.17,-147.44 99.76,-146.16 99.49,-144.26 100.36,-141.77"/>
    </edge>
    <edge id=":J15_3" function="internal">
        <lane id=":J15_3_0" index="0" speed="13.89" length="21.46" shape="103.73,-148.11 97.57,-147.36 92.95,-146.88 88.32,-146.65 82.12,-146.69"/>
        <lane id=":J15_3_1" index="1" speed="13.89" length="21.46" shape="103.35,-151.29 97.26,-150.54 92.80,-150.07 88.32,-149.85 82.19,-149.89"/>
    </edge>
    <edge id=":J15_5" function="internal">
        <lane id=":J15_5_0" index="0" speed="13.89" length="20.57" shape="82.33,-156.28 88.32,-156.24 92.49,-156.44 96.65,-156.91 102.60,-157.65"/>
        <lane id=":J15_5_1" index="1" speed="13.89" length="20.57" shape="82.26,-153.08 88.32,-153.05 92.64,-153.26 96.96,-153.73 102.98,-154.47"/>
    </edge>
    <edge id=":J15_7" function="internal">
        <lane id=":J15_7_0" index="0" speed="12.07" length="3.67" shape="82.26,-153.08 85.86,-152.35"/>
    </edge>
    <edge id=":J15_8" function="internal">
        <lane id=":J15_8_0" index="0" speed="12.07" length="17.18" shape="85.86,-152.35 86.50,-152.22 90.45,-149.80 94.13,-145.82 97.52,-140.30"/>
    </edge>
    <edge id=":J21_0" function="internal">
        <lane id=":J21_0_0" index="0" speed="9.29" length="1.95" shape="139.36,19.35 139.46,19.93 139.54,20.32 139.54,20.72 139.44,21.28"/>
    </edge>
    <edge id=":J21_1" function="internal">
        <lane id=":J21_1_0" index="0" speed="13.89" length="0.70" shape="136.29,20.51 136.35,20.33 136.32,20.19 136.25,20.05 136.19,19.85"/>
    </edge>
    <edge id=":J22_0" function="internal">
        <lane id=":J22_0_0" index="0" speed="13.89" length="0.59" shape="96.57,60.74 96.40,60.79 96.28,60.80 96.16,60.81 95.99,60.83"/>
    </edge>
    <edge id=":J22_1" function="internal">
        <lane id=":J22_1_0" index="0" speed="13.89" length="0.20" shape="95.57,57.65 95.62,57.65 95.66,57.65 95.70,57.65 95.76,57.63"/>
    </edge>
    <edge id=":J4_0" function="internal">
        <lane id=":J4_0_0" index="0" speed="9.84" length="18.51" shape="126.57,-41.75 125.23,-44.10 122.04,-45.89 116.99,-47.13 110.08,-47.83"/>
    </edge>
    <edge id=":J4_1" function="internal">
        <lane id=":J4_1_0" index="0" speed="13.89" length="35.77" shape="126.57,-41.75 125.42,-47.94 123.45,-57.46 121.14,-67.86 118.95,-76.70"/>
    </edge>
    <edge id=":J4_2" function="internal">
        <lane id=":J4_2_0" index="0" speed="10.33" length="9.19" shape="126.57,-41.75 126.04,-49.64 126.30,-50.91"/>
    </edge>
    <edge id=":J4_28" function="internal">
        <lane id=":J4_28_0" index="0" speed="10.33" length="14.71" shape="126.30,-50.91 127.24,-55.57 130.15,-59.52 134.79,-61.50"/>
    </edge>
    <edge id=":J4_3" function="internal">
        <lane id=":J4_3_0" index="0" speed="7.89" length="13.52" shape="136.51,-52.06 133.05,-50.89 130.77,-48.87 129.67,-45.99 129.73,-42.25"/>
    </edge>
    <edge id=":J4_4" function="internal">
        <lane id=":J4_4_0" index="0" speed="13.89" length="26.17" shape="136.51,-52.06 128.70,-50.29 123.37,-48.78 118.00,-47.85 110.08,-47.83"/>
        <lane id=":J4_4_1" index="1" speed="13.89" length="26.17" shape="135.93,-55.21 128.35,-53.47 123.16,-51.98 117.95,-51.06 110.25,-51.03"/>
        <lane id=":J4_4_2" index="2" speed="13.89" length="26.17" shape="135.36,-58.36 127.99,-56.66 122.96,-55.19 117.90,-54.26 110.43,-54.22"/>
    </edge>
    <edge id=":J4_7" function="internal">
        <lane id=":J4_7_0" index="0" speed="11.20" length="4.16" shape="135.36,-58.36 131.21,-58.68"/>
    </edge>
    <edge id=":J4_29" function="internal">
        <lane id=":J4_29_0" index="0" speed="11.20" length="22.79" shape="131.21,-58.68 130.25,-58.76 125.81,-61.95 122.04,-67.93 118.95,-76.70"/>
    </edge>
    <edge id=":J4_8" function="internal">
        <lane id=":J4_8_0" index="0" speed="7.89" length="13.52" shape="136.51,-52.06 133.05,-50.89 130.77,-48.87 129.67,-45.99 129.73,-42.25"/>
    </edge>
    <edge id=":J4_9" function="internal">
        <lane id=":J4_9_0" index="0" speed="13.89" length="25.64" shape="136.51,-52.06 128.80,-50.81 123.45,-50.40 118.07,-50.56 110.25,-51.03"/>
        <lane id=":J4_9_1" index="1" speed="13.89" length="25.64" shape="135.93,-55.21 128.44,-53.99 123.25,-53.60 118.02,-53.77 110.43,-54.22"/>
        <lane id=":J4_9_2" index="2" speed="13.89" length="25.64" shape="135.36,-58.36 128.09,-57.18 123.05,-56.80 117.97,-56.97 110.60,-57.42"/>
    </edge>
    <edge id=":J4_12" function="internal">
        <lane id=":J4_12_0" index="0" speed="11.20" length="5.13" shape="135.36,-58.36 130.25,-58.76"/>
    </edge>
    <edge id=":J4_13" function="internal">
        <lane id=":J4_13_0" index="0" speed="3.24" length="1.72" shape="135.36,-58.36 135.05,-60.05"/>
    </edge>
    <edge id=":J4_30" function="internal">
        <lane id=":J4_30_0" index="0" speed="11.20" length="21.83" shape="130.25,-58.76 125.81,-61.95 122.04,-67.93 118.95,-76.70"/>
    </edge>
    <edge id=":J4_31" function="internal">
        <lane id=":J4_31_0" index="0" speed="3.24" length="1.48" shape="135.05,-60.05 134.79,-61.50"/>
    </edge>
    <edge id=":J4_14" function="internal">
        <lane id=":J4_14_0" index="0" speed="8.40" length="14.73" shape="125.13,-78.37 126.84,-73.38 128.82,-69.95 131.09,-68.09 133.64,-67.80"/>
    </edge>
    <edge id=":J4_15" function="internal">
        <lane id=":J4_15_0" index="0" speed="13.89" length="36.44" shape="125.13,-78.37 126.85,-69.35 128.12,-58.54 129.06,-48.62 129.73,-42.25"/>
    </edge>
    <edge id=":J4_16" function="internal">
        <lane id=":J4_16_0" index="0" speed="10.66" length="10.20" shape="122.04,-77.53 123.86,-67.89 123.82,-67.51"/>
    </edge>
    <edge id=":J4_32" function="internal">
        <lane id=":J4_32_0" index="0" speed="10.66" length="22.11" shape="123.82,-67.51 123.07,-60.35 118.87,-55.57 110.43,-54.22"/>
    </edge>
    <edge id=":J4_17" function="internal">
        <lane id=":J4_17_0" index="0" speed="5.93" length="9.10" shape="111.29,-70.20 113.90,-70.43 115.53,-71.45 116.19,-73.26 115.87,-75.86"/>
    </edge>
    <edge id=":J4_18" function="internal">
        <lane id=":J4_18_0" index="0" speed="13.89" length="23.42" shape="111.29,-70.20 117.96,-69.29 122.53,-68.02 127.06,-67.24 133.64,-67.80"/>
        <lane id=":J4_18_1" index="1" speed="13.89" length="23.42" shape="111.11,-67.00 118.01,-66.08 122.73,-64.81 127.42,-64.06 134.21,-64.65"/>
        <lane id=":J4_18_2" index="2" speed="13.89" length="23.42" shape="110.94,-63.81 118.06,-62.87 122.93,-61.61 127.77,-60.87 134.79,-61.50"/>
    </edge>
    <edge id=":J4_21" function="internal">
        <lane id=":J4_21_0" index="0" speed="12.20" length="10.78" shape="110.77,-60.61 118.04,-59.14 120.88,-57.33"/>
    </edge>
    <edge id=":J4_33" function="internal">
        <lane id=":J4_33_0" index="0" speed="12.20" length="18.12" shape="120.88,-57.33 123.63,-55.58 127.52,-49.95 129.73,-42.25"/>
    </edge>
    <edge id=":J4_22" function="internal">
        <lane id=":J4_22_0" index="0" speed="5.93" length="9.10" shape="111.29,-70.20 113.90,-70.43 115.53,-71.45 116.19,-73.26 115.87,-75.86"/>
    </edge>
    <edge id=":J4_23" function="internal">
        <lane id=":J4_23_0" index="0" speed="13.89" length="24.37" shape="111.29,-70.20 118.21,-68.77 122.82,-66.40 127.39,-64.54 134.21,-64.65"/>
        <lane id=":J4_23_1" index="1" speed="13.89" length="24.37" shape="111.11,-67.00 118.25,-65.56 123.02,-63.19 127.75,-61.35 134.79,-61.50"/>
    </edge>
    <edge id=":J4_25" function="internal">
        <lane id=":J4_25_0" index="0" speed="13.13" length="15.16" shape="111.11,-67.00 117.86,-65.16 123.21,-60.41 123.68,-59.51"/>
    </edge>
    <edge id=":J4_26" function="internal">
        <lane id=":J4_26_0" index="0" speed="4.77" length="3.21" shape="110.94,-63.81 110.68,-59.01"/>
        <lane id=":J4_26_1" index="1" speed="3.24" length="3.21" shape="110.77,-60.61 110.68,-59.01"/>
    </edge>
    <edge id=":J4_34" function="internal">
        <lane id=":J4_34_0" index="0" speed="13.13" length="18.42" shape="123.68,-59.51 127.17,-52.78 129.73,-42.25"/>
    </edge>
    <edge id=":J4_35" function="internal">
        <lane id=":J4_35_0" index="0" speed="4.77" length="4.79" shape="110.68,-59.01 110.43,-54.22"/>
    </edge>
    <edge id=":J4_36" function="internal">
        <lane id=":J4_36_0" index="0" speed="3.24" length="1.59" shape="110.68,-59.01 110.60,-57.42"/>
    </edge>
    <edge id=":J5_0" function="internal">
        <lane id=":J5_0_0" index="0" speed="13.89" length="3.38" shape="202.67,-63.67 201.67,-63.73 200.98,-63.73 200.29,-63.65 199.31,-63.48"/>
    </edge>
    <edge id=":J5_1" function="internal">
        <lane id=":J5_1_0" index="0" speed="13.89" length="5.35" shape="202.87,-66.87 201.62,-66.47 201.08,-65.40 200.54,-64.22 199.31,-63.48"/>
        <lane id=":J5_1_1" index="1" speed="13.89" length="5.35" shape="203.08,-70.06 201.62,-69.67 200.89,-68.60 200.17,-67.40 198.73,-66.63"/>
        <lane id=":J5_1_2" index="2" speed="13.89" length="5.35" shape="203.08,-70.06 201.62,-70.15 200.61,-70.14 199.61,-70.03 198.16,-69.78"/>
    </edge>
    <edge id=":J5_4" function="internal">
        <lane id=":J5_4_0" index="0" speed="13.89" length="6.52" shape="196.44,-79.22 198.58,-79.59 200.05,-79.76 201.54,-79.77 203.70,-79.64"/>
        <lane id=":J5_4_1" index="1" speed="13.89" length="6.52" shape="197.02,-76.07 198.92,-76.41 200.24,-76.56 201.56,-76.56 203.49,-76.45"/>
        <lane id=":J5_4_2" index="2" speed="13.89" length="6.52" shape="197.59,-72.92 199.26,-73.22 200.42,-73.35 201.59,-73.35 203.29,-73.25"/>
    </edge>
    <edge id=":J5_7" function="internal">
        <lane id=":J5_7_0" index="0" speed="4.08" length="1.61" shape="197.59,-72.92 197.88,-71.34"/>
        <lane id=":J5_7_1" index="1" speed="3.24" length="1.61" shape="197.59,-72.92 197.88,-71.34"/>
    </edge>
    <edge id=":J5_9" function="internal">
        <lane id=":J5_9_0" index="0" speed="4.08" length="4.79" shape="197.88,-71.34 198.73,-66.63"/>
    </edge>
    <edge id=":J5_10" function="internal">
        <lane id=":J5_10_0" index="0" speed="3.24" length="1.59" shape="197.88,-71.34 198.16,-69.78"/>
    </edge>
    <edge id=":J6_0" function="internal">
        <lane id=":J6_0_0" index="0" speed="4.26" length="3.67" shape="239.05,-60.89 238.80,-61.14 238.59,-61.29 238.35,-61.36 237.99,-61.39"/>
        <lane id=":J6_0_1" index="1" speed="6.76" length="3.67" shape="241.38,-63.09 240.62,-63.84 239.99,-64.27 239.26,-64.48 238.20,-64.58"/>
        <lane id=":J6_0_2" index="2" speed="8.55" length="3.67" shape="243.71,-65.28 242.44,-66.54 241.40,-67.26 240.18,-67.61 238.40,-67.78"/>
    </edge>
    <edge id=":J6_3" function="internal">
        <lane id=":J6_3_0" index="0" speed="12.47" length="11.00" shape="239.02,-77.36 242.94,-76.98 245.61,-76.21 247.91,-74.64 250.70,-71.86"/>
        <lane id=":J6_3_1" index="1" speed="11.32" length="11.00" shape="238.81,-74.16 242.02,-73.86 244.21,-73.23 246.09,-71.94 248.37,-69.67"/>
        <lane id=":J6_3_2" index="2" speed="10.03" length="11.00" shape="238.61,-70.97 241.10,-70.73 242.80,-70.24 244.27,-69.24 246.04,-67.47"/>
    </edge>
    <edge id=":J8_0" function="internal">
        <lane id=":J8_0_0" index="0" speed="13.89" length="19.52" shape="52.80,-50.92 48.49,-53.03 47.33,-57.45 46.29,-62.39 42.32,-66.10"/>
        <lane id=":J8_0_1" index="1" speed="13.89" length="19.52" shape="52.98,-54.12 48.92,-56.21 48.01,-60.58 47.21,-65.46 43.48,-69.09"/>
    </edge>
    <edge id=":J8_2" function="internal">
        <lane id=":J8_2_0" index="0" speed="4.77" length="3.40" shape="53.15,-57.31 53.42,-62.30"/>
        <lane id=":J8_2_1" index="1" speed="3.24" length="3.40" shape="53.32,-60.51 53.42,-62.30"/>
    </edge>
    <edge id=":J8_11" function="internal">
        <lane id=":J8_11_0" index="0" speed="4.77" length="4.60" shape="53.42,-62.30 53.67,-66.90"/>
    </edge>
    <edge id=":J8_12" function="internal">
        <lane id=":J8_12_0" index="0" speed="3.24" length="1.40" shape="53.42,-62.30 53.49,-63.70"/>
    </edge>
    <edge id=":J8_4" function="internal">
        <lane id=":J8_4_0" index="0" speed="13.89" length="9.53" shape="45.79,-75.05 48.14,-74.17 49.80,-73.69 51.51,-73.45 54.01,-73.29"/>
        <lane id=":J8_4_1" index="1" speed="13.89" length="9.53" shape="44.64,-72.07 47.26,-71.08 49.12,-70.54 51.03,-70.27 53.84,-70.09"/>
        <lane id=":J8_4_2" index="2" speed="13.89" length="9.53" shape="44.64,-72.07 47.36,-70.51 49.02,-68.88 50.74,-67.56 53.67,-66.90"/>
    </edge>
    <edge id=":J8_7" function="internal">
        <lane id=":J8_7_0" index="0" speed="13.89" length="10.64" shape="44.64,-72.07 47.30,-71.58 49.21,-72.13 51.17,-72.96 54.01,-73.29"/>
        <lane id=":J8_7_1" index="1" speed="13.89" length="10.64" shape="44.64,-72.07 47.26,-71.08 49.12,-70.54 51.03,-70.27 53.84,-70.09"/>
        <lane id=":J8_7_2" index="2" speed="13.89" length="10.64" shape="44.64,-72.07 47.36,-70.51 49.02,-68.88 50.74,-67.56 53.67,-66.90"/>
        <lane id=":J8_7_3" index="3" speed="13.89" length="10.64" shape="44.64,-72.07 47.56,-69.88 48.91,-67.18 50.34,-64.84 53.49,-63.70"/>
    </edge>
    <edge id=":J9_0" function="internal">
        <lane id=":J9_0_0" index="0" speed="13.89" length="0.79" shape="35.18,-68.87 34.33,-69.24"/>
        <lane id=":J9_0_1" index="1" speed="13.89" length="0.79" shape="36.33,-71.86 35.73,-72.12"/>
    </edge>
    <edge id=":J9_2" function="internal">
        <lane id=":J9_2_0" index="0" speed="13.89" length="0.26" shape="38.53,-77.88 38.65,-77.82"/>
        <lane id=":J9_2_1" index="1" speed="13.89" length="0.26" shape="37.13,-75.00 37.49,-74.84"/>
    </edge>

    <edge id="-E10" from="J11" to="J10" priority="-1" shape="-7.24,-107.13 -7.00,-106.16 -6.55,-105.11 -5.87,-103.99 -4.97,-102.78 -3.85,-101.50 -2.50,-100.13 -0.94,-98.69 0.85,-97.17 2.85,-95.57 5.08,-93.89 7.53,-92.13 10.20,-90.29 13.09,-88.37 16.20,-86.38">
        <lane id="-E10_0" index="0" speed="13.89" length="29.09" shape="-2.54,-108.12 -2.43,-107.69 -2.27,-107.31 -1.88,-106.67 -1.23,-105.80 -0.33,-104.77 0.84,-103.58 2.24,-102.29 3.90,-100.88 5.79,-99.36 7.92,-97.76 10.29,-96.06 12.89,-94.27 15.71,-92.39 18.66,-90.50"/>
        <lane id="-E10_1" index="1" speed="13.89" length="29.09" shape="-5.65,-107.37 -5.48,-106.67 -5.12,-105.84 -4.54,-104.88 -3.72,-103.79 -2.68,-102.59 -1.39,-101.28 0.12,-99.89 1.87,-98.41 3.83,-96.83 6.03,-95.18 8.45,-93.44 11.10,-91.62 13.96,-89.71 16.94,-87.81"/>
    </edge>
    <edge id="-E11" from="J12" to="J11" priority="-1" shape="-9.93,-127.07 -9.82,-125.80 -9.60,-123.82 -9.30,-121.32 -8.95,-118.52 -8.56,-115.62 -8.17,-112.82 -7.81,-110.34 -7.49,-108.37 -7.24,-107.13">
        <lane id="-E11_0" index="0" speed="13.89" length="19.46" shape="-5.13,-127.33 -5.04,-126.28 -4.83,-124.37 -4.54,-121.90 -4.19,-119.14 -3.80,-116.27 -3.42,-113.50 -3.07,-111.07 -2.76,-109.21 -2.57,-108.23"/>
        <lane id="-E11_1" index="1" speed="13.89" length="19.46" shape="-8.32,-127.05 -8.23,-125.96 -8.01,-124.00 -7.71,-121.51 -7.36,-118.73 -6.97,-115.84 -6.59,-113.05 -6.23,-110.58 -5.91,-108.65 -5.70,-107.60"/>
    </edge>
    <edge id="-E12" from="J13" to="J12" priority="-1" shape="-11.55,-153.47 -11.73,-152.98 -11.78,-151.59 -11.73,-149.50 -11.60,-146.86 -11.40,-143.85 -11.15,-140.65 -10.88,-137.43 -10.62,-134.36 -10.37,-131.61 -10.15,-129.37 -10.00,-127.79 -9.93,-127.07">
        <lane id="-E12_0" index="0" speed="13.89" length="19.87" shape="-6.81,-147.13 -6.61,-144.20 -6.37,-141.04 -6.10,-137.83 -5.84,-134.78 -5.59,-132.06 -5.37,-129.83 -5.22,-128.25 -5.17,-127.68"/>
        <lane id="-E12_1" index="1" speed="13.89" length="19.87" shape="-10.03,-147.52 -10.00,-146.95 -9.80,-143.97 -9.56,-140.78 -9.29,-137.56 -9.03,-134.50 -8.78,-131.76 -8.56,-129.52 -8.41,-127.94 -8.35,-127.37"/>
    </edge>
    <edge id="-E13" from="J14" to="J4" priority="-1">
        <lane id="-E13_0" index="0" speed="13.89" length="32.36" shape="116.67,-109.61 125.13,-78.37"/>
        <lane id="-E13_1" index="1" speed="13.89" length="32.36" shape="113.58,-108.77 122.04,-77.53"/>
    </edge>
    <edge id="-E14" from="J15" to="J14" priority="-1">
        <lane id="-E14_0" index="0" speed="13.89" length="33.70" shape="100.36,-141.77 115.81,-111.82"/>
        <lane id="-E14_1" index="1" speed="13.89" length="33.70" shape="97.52,-140.30 112.97,-110.35"/>
    </edge>
    <edge id="-E15" from="J16" to="J15" priority="-1">
        <lane id="-E15_0" index="0" speed="13.89" length="103.19" shape="206.20,-160.29 103.73,-148.11"/>
        <lane id="-E15_1" index="1" speed="13.89" length="103.19" shape="205.82,-163.47 103.35,-151.29"/>
    </edge>
    <edge id="-E16" from="J13" to="J15" priority="-1">
        <lane id="-E16_0" index="0" speed="13.89" length="87.30" shape="-4.95,-158.13 82.33,-156.28"/>
        <lane id="-E16_1" index="1" speed="13.89" length="87.30" shape="-5.02,-154.93 82.26,-153.08"/>
    </edge>
    <edge id="-E20" from="J21" to="J4" priority="-1">
        <lane id="-E20_0" index="0" speed="13.89" length="62.35" shape="136.19,19.85 126.57,-41.75"/>
    </edge>
    <edge id="-E21" from="J22" to="J21" priority="-1" shape="96.15,59.19 96.59,59.04 97.23,58.68 98.07,58.13 99.07,57.40 100.24,56.51 101.56,55.47 103.00,54.29 104.56,52.98 106.22,51.57 107.97,50.06 109.79,48.46 111.66,46.80 113.58,45.09 115.52,43.34 117.47,41.55 119.41,39.76 121.34,37.96 123.23,36.18 125.08,34.43 126.86,32.72 128.56,31.07 130.17,29.49 131.67,27.99 133.04,26.59 134.28,25.30 135.36,24.13 136.27,23.10 137.01,22.23 137.54,21.52 137.86,20.99 137.94,20.66">
        <lane id="-E21_0" index="0" speed="13.89" length="55.08" shape="95.76,57.63 95.93,57.57 96.39,57.32 97.16,56.82 98.11,56.12 99.26,55.25 100.56,54.22 101.98,53.06 103.53,51.76 105.18,50.35 106.92,48.85 108.73,47.26 110.60,45.60 112.51,43.90 114.44,42.16 116.39,40.37 118.32,38.59 120.25,36.79 122.13,35.02 123.98,33.27 125.75,31.57 127.44,29.92 129.04,28.35 130.53,26.86 131.89,25.48 133.12,24.20 134.17,23.06 135.06,22.05 135.76,21.23 136.22,20.62 136.29,20.51"/>
    </edge>
    <edge id="-E22" from="J23" to="J22" priority="-1" shape="56.14,63.93 56.58,63.95 57.57,63.88 59.05,63.74 60.96,63.54 63.22,63.29 65.78,62.99 68.57,62.66 71.52,62.31 74.57,61.93 77.65,61.55 80.70,61.17 83.65,60.80 86.44,60.45 89.01,60.12 91.28,59.83 93.20,59.58 94.69,59.39 95.70,59.25 96.15,59.19">
        <lane id="-E22_0" index="0" speed="13.89" length="39.64" shape="56.21,62.33 56.56,62.35 57.43,62.29 58.89,62.15 60.79,61.95 63.04,61.70 65.59,61.40 68.38,61.07 71.33,60.72 74.37,60.34 77.45,59.96 80.50,59.58 83.45,59.21 86.24,58.86 88.81,58.53 91.08,58.24 93.00,57.99 94.48,57.80 95.57,57.65"/>
    </edge>
    <edge id="-E4" from="J5" to="J4" priority="-1">
        <lane id="-E4_0" index="0" speed="13.89" length="63.83" shape="199.31,-63.48 136.51,-52.06"/>
        <lane id="-E4_1" index="1" speed="13.89" length="63.83" shape="198.73,-66.63 135.93,-55.21"/>
        <lane id="-E4_2" index="2" speed="13.89" length="63.83" shape="198.16,-69.78 135.36,-58.36"/>
    </edge>
    <edge id="-E40" from="J5" to="J4" priority="-1">
        <lane id="-E40_0" index="0" speed="13.89" length="63.83" shape="199.31,-63.48 136.51,-52.06"/>
        <lane id="-E40_1" index="1" speed="13.89" length="63.83" shape="198.73,-66.63 135.93,-55.21"/>
        <lane id="-E40_2" index="2" speed="13.89" length="63.83" shape="198.16,-69.78 135.36,-58.36"/>
    </edge>
    <edge id="-E5" from="J6" to="J5" priority="-1">
        <lane id="-E5_0" index="0" speed="13.89" length="35.40" shape="237.99,-61.39 202.67,-63.67"/>
        <lane id="-E5_1" index="1" speed="13.89" length="35.40" shape="238.20,-64.58 202.87,-66.87"/>
        <lane id="-E5_2" index="2" speed="13.89" length="35.40" shape="238.40,-67.78 203.08,-70.06"/>
    </edge>
    <edge id="-E6" from="J7" to="J6" priority="-1">
        <lane id="-E6_0" index="0" speed="13.89" length="34.34" shape="262.60,-35.89 239.05,-60.89"/>
        <lane id="-E6_1" index="1" speed="13.89" length="34.34" shape="264.93,-38.09 241.38,-63.09"/>
        <lane id="-E6_2" index="2" speed="13.89" length="34.34" shape="267.26,-40.28 243.71,-65.28"/>
    </edge>
    <edge id="-E7" from="J8" to="J4" priority="-1">
        <lane id="-E7_0" index="0" speed="13.89" length="57.36" shape="54.01,-73.29 111.29,-70.20"/>
        <lane id="-E7_1" index="1" speed="13.89" length="57.36" shape="53.84,-70.09 111.11,-67.00"/>
        <lane id="-E7_2" index="2" speed="13.89" length="57.36" shape="53.67,-66.90 110.94,-63.81"/>
        <lane id="-E7_3" index="3" speed="13.89" length="57.36" shape="53.49,-63.70 110.77,-60.61"/>
    </edge>
    <edge id="-E70" from="J8" to="J4" priority="-1">
        <lane id="-E70_0" index="0" speed="13.89" length="57.36" shape="54.01,-73.29 111.29,-70.20"/>
        <lane id="-E70_1" index="1" speed="13.89" length="57.36" shape="53.84,-70.09 111.11,-67.00"/>
        <lane id="-E70_2" index="2" speed="13.89" length="57.36" shape="53.67,-66.90 110.94,-63.81"/>
        <lane id="-E70_3" index="3" speed="13.89" length="57.36" shape="53.49,-63.70 110.77,-60.61"/>
    </edge>
    <edge id="-E8" from="J9" to="J8" priority="-1">
        <lane id="-E8_0" index="0" speed="13.89" length="7.66" shape="38.65,-77.82 45.79,-75.05"/>
        <lane id="-E8_1" index="1" speed="13.89" length="7.66" shape="37.49,-74.84 44.64,-72.07"/>
    </edge>
    <edge id="-E9" from="J10" to="J9" priority="-1" shape="16.20,-86.38 17.19,-85.73 18.69,-84.74 20.59,-83.49 22.77,-82.05 25.13,-80.50 27.55,-78.92 29.92,-77.40 32.14,-76.01 34.07,-74.84 35.63,-73.95 36.68,-73.44">
        <lane id="-E9_0" index="0" speed="13.89" length="23.40" shape="18.96,-90.31 19.83,-89.74 21.33,-88.75 23.23,-87.50 25.41,-86.06 27.76,-84.52 30.16,-82.95 32.49,-81.45 34.66,-80.10 36.51,-78.97 37.90,-78.18 38.53,-77.88"/>
        <lane id="-E9_1" index="1" speed="13.89" length="23.40" shape="17.20,-87.64 18.07,-87.07 19.57,-86.08 21.47,-84.83 23.65,-83.39 26.01,-81.84 28.42,-80.26 30.78,-78.75 32.98,-77.37 34.88,-76.22 36.39,-75.36 37.13,-75.00"/>
    </edge>
    <edge id="E10" from="J10" to="J11" priority="-1" shape="16.20,-86.38 13.09,-88.37 10.20,-90.29 7.53,-92.13 5.08,-93.89 2.85,-95.57 0.85,-97.17 -0.94,-98.69 -2.50,-100.13 -3.85,-101.50 -4.97,-102.78 -5.87,-103.99 -6.55,-105.11 -7.00,-106.16 -7.24,-107.13">
        <lane id="E10_0" index="0" speed="13.89" length="34.00" shape="13.49,-82.42 10.47,-84.35 7.51,-86.31 4.77,-88.20 2.24,-90.02 -0.09,-91.78 -2.20,-93.46 -4.12,-95.09 -5.83,-96.68 -7.37,-98.23 -8.71,-99.76 -9.86,-101.31 -10.83,-102.91 -11.57,-104.63 -11.87,-105.87"/>
        <lane id="E10_1" index="1" speed="13.89" length="34.00" shape="15.21,-85.11 12.22,-87.03 9.30,-88.96 6.61,-90.82 4.13,-92.60 1.87,-94.31 -0.17,-95.93 -2.00,-97.49 -3.61,-98.98 -5.02,-100.41 -6.22,-101.77 -7.20,-103.10 -7.98,-104.38 -8.52,-105.65 -8.76,-106.62"/>
    </edge>
    <edge id="E11" from="J11" to="J12" priority="-1" shape="-7.24,-107.13 -7.49,-108.37 -7.81,-110.34 -8.17,-112.82 -8.56,-115.62 -8.95,-118.52 -9.30,-121.32 -9.60,-123.82 -9.82,-125.80 -9.93,-127.07">
        <lane id="E11_0" index="0" speed="13.89" length="20.17" shape="-11.98,-106.34 -12.22,-107.53 -12.55,-109.61 -12.92,-112.14 -13.32,-114.97 -13.71,-117.90 -14.06,-120.74 -14.37,-123.27 -14.60,-125.32 -14.70,-126.51"/>
        <lane id="E11_1" index="1" speed="13.89" length="20.17" shape="-8.84,-106.97 -9.07,-108.09 -9.39,-110.10 -9.75,-112.59 -10.15,-115.40 -10.54,-118.31 -10.89,-121.13 -11.19,-123.64 -11.41,-125.64 -11.51,-126.78"/>
    </edge>
    <edge id="E12" from="J12" to="J13" priority="-1" shape="-9.93,-127.07 -10.00,-127.79 -10.15,-129.37 -10.37,-131.61 -10.62,-134.36 -10.88,-137.43 -11.15,-140.65 -11.40,-143.85 -11.60,-146.86 -11.73,-149.50 -11.78,-151.59 -11.73,-152.98 -11.55,-153.47">
        <lane id="E12_0" index="0" speed="13.89" length="21.27" shape="-14.72,-126.75 -14.78,-127.33 -14.93,-128.91 -15.15,-131.16 -15.40,-133.94 -15.66,-137.03 -15.93,-140.26 -16.19,-143.50 -16.39,-146.58 -16.48,-148.30"/>
        <lane id="E12_1" index="1" speed="13.89" length="21.27" shape="-11.54,-127.06 -11.59,-127.64 -11.74,-129.22 -11.96,-131.46 -12.21,-134.22 -12.47,-137.30 -12.74,-140.52 -13.00,-143.73 -13.20,-146.77 -13.25,-147.91"/>
    </edge>
    <edge id="E13" from="J4" to="J14" priority="-1">
        <lane id="E13_0" index="0" speed="13.89" length="32.36" shape="115.87,-75.86 107.40,-107.10"/>
        <lane id="E13_1" index="1" speed="13.89" length="32.36" shape="118.95,-76.70 110.49,-107.94"/>
    </edge>
    <edge id="E14" from="J14" to="J15" priority="-1">
        <lane id="E14_0" index="0" speed="13.89" length="33.70" shape="107.28,-107.41 91.83,-137.36"/>
        <lane id="E14_1" index="1" speed="13.89" length="33.70" shape="110.13,-108.88 94.67,-138.83"/>
    </edge>
    <edge id="E15" from="J15" to="J16" priority="-1">
        <lane id="E15_0" index="0" speed="13.89" length="103.19" shape="102.60,-157.65 205.06,-169.83"/>
        <lane id="E15_1" index="1" speed="13.89" length="103.19" shape="102.98,-154.47 205.44,-166.65"/>
    </edge>
    <edge id="E16" from="J15" to="J13" priority="-1">
        <lane id="E16_0" index="0" speed="13.89" length="87.30" shape="82.12,-146.69 -5.16,-148.53"/>